LAMMPS (29 Aug 2024 - Update 1)
Loaded 1 plugins from C:\Users\Hello\AppData\Local\LAMMPS 64-bit 29Aug2024\plugins
####################################
# LAMMPS input script for y-monomer#
####################################

####################################
# 1) Set up simulation box
#   - We set a 3D periodic box
####################################

units		lj
atom_style hybrid molecular ellipsoid  # Combine ellipsoid and bond styles
dimension	3
boundary	p p p

read_data X_DNA_Formation.dat.lammps
Reading data file ...
  orthogonal box = (0 0 0) to (30 30 30)
  reading atoms ...
  160 atoms
  reading velocities ...
  160 velocities
  160 ellipsoids
  scanning bonds ...
  orthogonal box = (0 0 0) to (30 30 30)
  reading bonds ...
  156 bonds
Finding 1-2 1-3 1-4 neighbors ...
     2 = max # of 1-2 neighbors
     2 = max # of 1-3 neighbors
     4 = max # of 1-4 neighbors
     6 = max # of special neighbors

####################################
# 2) Define interparticle interactions
####################################

# masses already specified in file

# intramolecule bonds
bond_style harmonic
bond_coeff 1 100.0 1.0

# intermolecular interactions
pair_style gayberne 1.0 3.0 1.0 4.0     # Specifies the Gay-Berne potential for ellipsoidal particles.
pair_coeff * * 1.0 1.0 1.0 0.5 0.2 1.0 1.0 1.0  # Sets the coefficients for the Gay-Berne potential

####################################
# 3) Neighbour lists
#   - Each atom will only consider neighbours
#     within a distance of 2.8 of each other
#   - The neighbour lists are recalculated
#     every timestep
####################################

neighbor        0.3 bin
neigh_modify    every 1 delay 0 check yes

####################################
# 4) Define simulation parameters
#   - We fix the temperature and
#     linear and angular momenta
#     of the system
#   - We run with fixed number (n),
#     volume (v), temperature (t)
####################################

# for example
fix		1 all nvt temp 1.00 1.00 0.1

####################################
# 5) Final setup
#   - Define starting particle velocity => not needed, simulation does so already
#   - Define timestep
#   - Define output system properties (temp, energy, etc.)
#   - Define simulation length
####################################

timestep	0.005

thermo_style	custom step temp etotal pe ke press vol density
thermo		100
dump 1 all atom 1000 dump.lammpstrj
dump_modify 1 sort id

# Run energy minimization => no need since we already specified all non-overlapping locations
# minimize 1.0e-4 1.0e-6 10 1000

# Run simulation
run 10000

CITE-CITE-CITE-CITE-CITE-CITE-CITE-CITE-CITE-CITE-CITE-CITE-CITE

Your simulation uses code contributions which should be cited:

- Type Label Framework: https://doi.org/10.1021/acs.jpcb.3c08419

@Article{Gissinger24,
 author = {Jacob R. Gissinger, Ilia Nikiforov, Yaser Afshar, Brendon Waters, Moon-ki Choi, Daniel S. Karls, Alexander Stukowski, Wonpil Im, Hendrik Heinz, Axel Kohlmeyer, and Ellad B. Tadmor},
 title = {Type Label Framework for Bonded Force Fields in LAMMPS},
 journal = {J. Phys. Chem. B},
 year =    2024,
 volume =  128,
 number =  13,
 pages =   {3282â€“-3297}
}

- pair gayberne command: doi:10.1063/1.3058435

@Article{Brown09,
 author =  {W. M. Brown and M. K. Petersen and S. J. Plimpton and G. S. Grest},
 title =   {Liquid Crystal Nanodroplets in Solution},
 journal = {J.~Chem.\ Phys.},
 year =    2009,
 volume =  130,
 number =  4,
 pages =   {044901}
}

CITE-CITE-CITE-CITE-CITE-CITE-CITE-CITE-CITE-CITE-CITE-CITE-CITE

Generated 0 of 6 mixed pair_coeff terms from geometric mixing rule
Step          Temp          TotEng         PotEng         KinEng         Press          Volume        Density
0   0              28.207468      28.207468      0              0.074659176    27000          0.0050204418
Averages over the last 51 of 101 rows, steps 5000 to 10000:
Temp TotEng PotEng KinEng Press Volume Density
0.977906 -0.480238 -1.93793 1.45769 -0.000597914 27000 0.00502044
Loop time of 38.8864 on 1 procs for 10000 steps with 160 atoms
