LAMMPS (29 Aug 2024 - Update 1)
Loaded 1 plugins from C:\Users\Hello\AppData\Local\LAMMPS 64-bit 29Aug2024\plugins
####################################
# Example LAMMPS input script      #
# for a simple Lennard Jones fluid #
####################################

####################################
# 1) Set up simulation box
#   - We set a 3D periodic box
#   - Our box has 10x10x10 atom
#     positions, evenly distributed
#   - The atom starting sites are
#     separated such that the box density
#     is 0.6
####################################

units		lj
atom_style	atomic
dimension	3
boundary	p p p

lattice		sc 0.60
Lattice spacing in x,y,z = 1.1856311 1.1856311 1.1856311
region		box block 0 10 0 10 0 10
create_box	1 box
Created orthogonal box = (0 0 0) to (11.856311 11.856311 11.856311)
create_atoms	1 box
Created 1000 atoms

####################################
# 2) Define interparticle interactions
#   - Here, we use truncated & shifted LJ
#   - All atoms of type 1 (in this case, all atoms)
#     have a mass of 1.0
####################################

pair_style	lj/cut 3.5
pair_modify	shift yes
pair_coeff	1 1 1.0 1.0
mass		1 1.0

####################################
# 3) Neighbour lists
#   - Each atom will only consider neighbours
#     within a distance of 2.8 of each other
#   - The neighbour lists are recalculated
#     every timestep
####################################

neighbor        0.3 bin
neigh_modify    delay 10 every 1

####################################
# 4) Define simulation parameters
#   - We fix the temperature and
#     linear and angular momenta
#     of the system
#   - We run with fixed number (n),
#     volume (v), temperature (t)
####################################

fix		LinMom all momentum 50 linear 1 1 1 angular
fix		1 all nvt temp 1.00 1.00 5.0
#fix 		1 all npt temp 1.0 1.0 25.0 iso 1.5150 1.5150  10.0

####################################
# 5) Final setup
#   - Define starting particle velocity
#   - Define timestep
#   - Define output system properties (temp, energy, etc.)
#   - Define simulation length
####################################

velocity	all create 1.0 199085 mom no

timestep	0.005

thermo_style	custom step temp etotal pe ke press vol density
thermo		500

run_style	verlet

run		50000
Generated 0 of 0 mixed pair_coeff terms from geometric mixing rule
Step          Temp          TotEng         PotEng         KinEng         Press          Volume        Density
0   1             -2.709841      -4.208341       1.4985        -2.6415761      1666.6667      0.6
Averages over the last 51 of 101 rows, steps 25000 to 50000:
Temp TotEng PotEng KinEng Press Volume Density
0.995318 -2.50201 -3.99349 1.49148 -0.128196 1666.67 0.6
Loop time of 74.381 on 1 procs for 50000 steps with 1000 atoms

####################################
# 6) Advanced inputs
####################################

#dump		2 all custom 1000 positions.lammpstrj id x y z vx vy vz
#dump_modify	2 sort id

#compute		RDF all rdf 150 cutoff 3.5
#fix		RDF_OUTPUT all ave/time 25 100 5000 c_RDF[*] file rdf_lj.out mode vector

#compute		MSD all msd
#fix		MSD_OUTPUT all ave/correlate 1 5000 5000 c_MSD[*] file msd_lj.out ave running

#compute		VACF all vacf
#fix		VACF_OUTPUT all ave/correlate 1 2500 5000 c_VACF[*] file vacf_lj.out ave running

#run		5000

#write_restart	restart2.lj.equil
